/*--------------------------------*- C++ -*----------------------------------*\
| =========                 |                                                 |
| \\      /  F ield         | OpenFOAM: The Open Source CFD Toolbox           |
|  \\    /   O peration     | Version:  v2006                                 |
|   \\  /    A nd           | Web:      www.OpenFOAM.com                      |
|    \\/     M anipulation  |                                                 |
\*---------------------------------------------------------------------------*/
FoamFile
{
    version     2.0;
    format      ascii;
    class       volScalarField;
    location    "0";
    object      T;
}
// * * * * * * * * * * * * * * * * * * * * * * * * * * * * * * * * * * * * * //

dimensions      [0 0 0 1 0 0 0];

internalField   uniform 1;

boundaryField
{

    walls
    {
      type              fixedValue; //zeroGradient;
      value             uniform 1; //for isothermal boundary
    }

    sides
    {
        type            empty;
    }

    atmosphere
    {
        type            freestream; //zeroGradient; //inletOutlet;
        freestreamValue uniform 1;
        //inletValue      uniform 1;
    }

}





// ************************************************************************* //
