/*--------------------------------*- C++ -*----------------------------------*\
| =========                 |                                                 |
| \\      /  F ield         | OpenFOAM: The Open Source CFD Toolbox           |
|  \\    /   O peration     | Version:  v2006                                 |
|   \\  /    A nd           | Website:  www.openfoam.com                      |
|    \\/     M anipulation  |                                                 |
\*---------------------------------------------------------------------------*/
FoamFile
{
    version     2.0;
    format      ascii;
    class       polyBoundaryMesh;
    location    "constant/polyMesh";
    object      boundary;
}
// * * * * * * * * * * * * * * * * * * * * * * * * * * * * * * * * * * * * * //

7
(
    out
    {
        type            patch;
        nFaces          80;
        startFace       18980;
    }
    sym1
    {
        type            symmetryPlane;
        inGroups        1(symmetryPlane);
        nFaces          100;
        startFace       19060;
    }
    sym2
    {
        type            symmetryPlane;
        inGroups        1(symmetryPlane);
        nFaces          100;
        startFace       19160;
    }
    in
    {
        type            patch;
        nFaces          80;
        startFace       19260;
    }
    cylinder
    {
        type            wall;
        inGroups        1(wall);
        nFaces          80;
        startFace       19340;
    }
    back
    {
        type            empty;
        inGroups        1(empty);
        nFaces          9600;
        startFace       19420;
    }
    front
    {
        type            empty;
        inGroups        1(empty);
        nFaces          9600;
        startFace       29020;
    }
)

// ************************************************************************* //
