/*--------------------------------*- C++ -*----------------------------------*\
  =========                 |				
  \\      /  F ield         | OpenFOAM: The Open Source CFD Toolbox
   \\    /   O peration     | Website:  https://openfoam.org
    \\  /    A nd           | Version:  9                                   	
     \\/     M anipulation  |
\*---------------------------------------------------------------------------*/
FoamFile
{
    version     2.0;
    format      ascii;
    class       volScalarField;
    object      nut;
}
// * * * * * * * * * * * * * * * * * * * * * * * * * * * * * * * * * * * * * //

dimensions      [0 2 -1 0 0 0 0];

internalField   uniform 3.5496e-7;

boundaryField
{
    out
    {
        type            zeroGradient;
    }
    sym1
    {
        type            symmetryPlane;
    }
    sym2
    {
        type            symmetryPlane;
    }
    in
    {
        type            zeroGradient;
    }
    cylinder
    {
        type            nutUSpaldingWallFunction;
        //Cmu             0.09;
        //kappa           0.41;
        //E               9.8;
        value           uniform 3.5496e-7;
    }
    back
    {
        type            empty;
    }
    front
    {
        type            empty;
    }
}

// ************************************************************************* //
